108
 generated by VMD
 Ar        3.220022        3.432005       13.633997
 Ar        8.705988       17.049988        7.296999
 Ar        5.087030        7.354003       11.929009
 Ar       14.466996       17.261955       16.528999
 Ar        7.125989        4.672992        4.446997
 Ar       10.357996        6.005996        4.066009
 Ar       16.311991       14.228995        4.054997
 Ar       17.325993        8.065975       10.321991
 Ar        4.733016       15.255997       12.256020
 Ar        9.625004       14.557999       17.444000
 Ar       12.384008        9.577992        3.909998
 Ar       17.503977        1.415996       16.235001
 Ar       14.336999       17.596996        2.583987
 Ar        6.781988        8.454999        9.091994
 Ar        0.434991        7.794004        6.947000
 Ar        3.526998       12.900989        5.218003
 Ar       12.414001       12.440983        9.723984
 Ar       16.507034       14.510991       14.724010
 Ar       13.483016       14.656021        1.208007
 Ar       11.005999        4.386993       10.634994
 Ar       14.562015        4.463002       11.587014
 Ar        8.105991       12.007003        3.089999
 Ar       10.787980        9.278019        7.574010
 Ar        1.579965       11.421015       11.429995
 Ar       17.160000       14.798001       11.380020
 Ar       15.057998       10.930997        5.753002
 Ar        3.561006        9.657983        8.112009
 Ar        6.103981        9.782020       16.919998
 Ar        3.860987       13.150995        9.016041
 Ar        1.585999        7.065981       14.618028
 Ar       11.120991        2.886977        2.230993
 Ar        5.405983        6.563026        0.944048
 Ar       11.616041       15.710999        8.599018
 Ar        8.111992       13.826022       11.311011
 Ar        2.719005        8.709004        0.446925
 Ar        5.135001        5.905011        7.191998
 Ar       17.379999        6.843998        1.909002
 Ar       10.772017        5.876018        0.250003
 Ar        8.022031        4.741984       14.158001
 Ar       12.184997        8.992003       14.913988
 Ar        1.647019        0.191006       12.699995
 Ar        9.057018       11.219988       16.375994
 Ar       17.080999        2.774024        8.946989
 Ar       14.576966       11.909019       16.254999
 Ar        0.422012        4.970975       12.203998
 Ar        8.152025        3.796002        0.620004
 Ar        6.567982       14.815987        4.262999
 Ar        6.319007        0.633005        4.982960
 Ar        9.223978        8.753008        1.718994
 Ar       11.057991        0.326993        4.626047
 Ar        2.213007        4.539999       17.563984
 Ar       15.315975        5.688965        8.211005
 Ar       11.612989        5.669968       14.148009
 Ar        5.646993        3.297021       16.205004
 Ar       10.463987       12.125991       13.096992
 Ar        8.881001       13.688004        7.179019
 Ar        5.145003        8.641997        3.745008
 Ar        2.311001       17.044004        4.400002
 Ar        8.749039       17.313999       10.508016
 Ar        8.379989       16.033981       14.461989
 Ar       10.840015        2.139017        8.108992
 Ar        1.226010        0.086978        9.040996
 Ar        3.994007        2.331043        3.032985
 Ar        2.811002        5.574002        4.358999
 Ar       11.828968       13.678025        4.260976
 Ar        6.616966        1.695994       12.776016
 Ar        8.279020        0.462011        1.813010
 Ar       17.085993        3.880026        5.225007
 Ar       15.611009        7.423990       13.620984
 Ar       11.139988        0.712992       16.897997
 Ar       17.190990       12.029009        1.102007
 Ar        6.843008       10.463998        5.980999
 Ar        5.540024       13.694983       15.502005
 Ar        4.490962       16.381004        7.274004
 Ar       14.313002       11.374997       12.730000
 Ar        3.212007        2.643999        6.583000
 Ar       15.117004        8.179974       17.165976
 Ar        4.084997       15.954993        1.697006
 Ar       17.419004        1.743992        1.883039
 Ar       10.935017        2.137997       13.647001
 Ar        3.063040       16.749998       15.743971
 Ar        5.808003        1.757005        9.212988
 Ar       15.309991        0.877989       12.985017
 Ar        8.914998        8.084999       14.224014
 Ar       14.185004        4.665997        2.179978
 Ar       11.733006        6.054019        7.853992
 Ar        2.206998       13.540997       14.298004
 Ar       11.609012       11.622986        0.635000
 Ar       14.352999        9.004022        9.562013
 Ar       16.382029        0.053013        5.890970
 Ar        1.161004       14.530991        7.210978
 Ar        0.033038       10.132999       15.485009
 Ar       11.686028       16.258995       12.878014
 Ar        5.263997        6.945021       15.106997
 Ar        1.323987       10.838001        3.760001
 Ar        8.481969        4.849012        7.940042
 Ar       16.754997        4.546014       15.816992
 Ar        4.736017       11.044000       13.293013
 Ar       13.527997        2.909986        5.710019
 Ar       13.748990        2.779005       16.250996
 Ar       14.241982        0.638007        9.195000
 Ar       14.902004       14.895994        7.144986
 Ar        4.073012        4.381987       10.505015
 Ar        0.356997       16.081011        0.648999
 Ar        4.902017       11.861989        1.787995
 Ar       10.857006        9.310013       11.033997
 Ar       15.082011        6.941996        4.788999
 Ar       17.248993       11.210986        8.422972

